# generated using pymatgen
data_Li6Te5PBr
_symmetry_space_group_name_H-M   'P 1'
_cell_length_a   11.75959543
_cell_length_b   11.75959543
_cell_length_c   11.75959543
_cell_angle_alpha   90.00000000
_cell_angle_beta   90.00000000
_cell_angle_gamma   90.00000000
_symmetry_Int_Tables_number   1
_chemical_formula_structural   Li6Te5PBr
_chemical_formula_sum   'Li24 Te20 P4 Br4'
_cell_volume   1626.21193002
_cell_formula_units_Z   4
loop_
 _symmetry_equiv_pos_site_id
 _symmetry_equiv_pos_as_xyz
  1  'x, y, z'
loop_
 _atom_site_type_symbol
 _atom_site_label
 _atom_site_symmetry_multiplicity
 _atom_site_fract_x
 _atom_site_fract_y
 _atom_site_fract_z
 _atom_site_occupancy
  Br  Br0  1  0.000000  0.000000  0.500000  1
  Br  Br1  1  0.500000  0.500000  0.500000  1
  Br  Br2  1  0.000000  0.500000  0.000000  1
  Br  Br3  1  0.500000  0.000000  0.000000  1
  Li  Li4  1  0.024089  0.250000  0.750000  1
  Li  Li5  1  0.524089  0.250000  0.250000  1
  Li  Li6  1  0.975911  0.750000  0.750000  1
  Li  Li7  1  0.475911  0.750000  0.250000  1
  Li  Li8  1  0.975911  0.250000  0.250000  1
  Li  Li9  1  0.475911  0.250000  0.750000  1
  Li  Li10  1  0.024089  0.750000  0.250000  1
  Li  Li11  1  0.524089  0.750000  0.750000  1
  Li  Li12  1  0.750000  0.024089  0.250000  1
  Li  Li13  1  0.750000  0.524089  0.750000  1
  Li  Li14  1  0.750000  0.975911  0.750000  1
  Li  Li15  1  0.750000  0.475911  0.250000  1
  Li  Li16  1  0.250000  0.975911  0.250000  1
  Li  Li17  1  0.250000  0.475911  0.750000  1
  Li  Li18  1  0.250000  0.024089  0.750000  1
  Li  Li19  1  0.250000  0.524089  0.250000  1
  Li  Li20  1  0.250000  0.750000  0.024089  1
  Li  Li21  1  0.250000  0.250000  0.524089  1
  Li  Li22  1  0.750000  0.750000  0.975911  1
  Li  Li23  1  0.750000  0.250000  0.475911  1
  Li  Li24  1  0.250000  0.250000  0.975911  1
  Li  Li25  1  0.250000  0.750000  0.475911  1
  Li  Li26  1  0.750000  0.250000  0.024089  1
  Li  Li27  1  0.750000  0.750000  0.524089  1
  P  P28  1  0.000000  0.000000  0.000000  1
  P  P29  1  0.000000  0.500000  0.500000  1
  P  P30  1  0.500000  0.000000  0.500000  1
  P  P31  1  0.500000  0.500000  0.000000  1
  Te  Te32  1  0.121955  0.121955  0.121955  1
  Te  Te33  1  0.121955  0.621955  0.621955  1
  Te  Te34  1  0.621955  0.121955  0.621955  1
  Te  Te35  1  0.621955  0.621955  0.121955  1
  Te  Te36  1  0.878045  0.878045  0.121955  1
  Te  Te37  1  0.878045  0.378045  0.621955  1
  Te  Te38  1  0.378045  0.878045  0.621955  1
  Te  Te39  1  0.378045  0.378045  0.121955  1
  Te  Te40  1  0.878045  0.121955  0.878045  1
  Te  Te41  1  0.878045  0.621955  0.378045  1
  Te  Te42  1  0.378045  0.121955  0.378045  1
  Te  Te43  1  0.378045  0.621955  0.878045  1
  Te  Te44  1  0.121955  0.878045  0.878045  1
  Te  Te45  1  0.121955  0.378045  0.378045  1
  Te  Te46  1  0.621955  0.878045  0.378045  1
  Te  Te47  1  0.621955  0.378045  0.878045  1
  Te  Te48  1  0.250000  0.250000  0.750000  1
  Te  Te49  1  0.750000  0.750000  0.750000  1
  Te  Te50  1  0.750000  0.250000  0.250000  1
  Te  Te51  1  0.250000  0.750000  0.250000  1
